%nprocshared=8
#p wb97xd/gen nosymm geom=connectivity opt

Title Card Required

0 2
 Si                -1.74267500    0.39012600   -1.17248700
 O                 -1.19794000    1.14061200    0.15032600
 F                 -1.19543300   -1.11954000   -1.15176900
 F                 -1.24481800    1.09873800   -2.53296200
 F                 -3.35401800    0.35185500   -1.24354500

 1 2 2.0 3 1.0 4 1.0 5 1.0
 2
 3
 4
 5

Si O 0
TZVP
****
F 0
6-31G
****


