%nprocshared=12
#p wb97xd/gen nosymm freq temp=373.15 punch=derivatives

CrSite

0 5
 Cr                -0.09547200    2.71698700    3.39566700
 O                  0.90334100    2.77146300    1.88225100
 O                 -1.83252800    2.76746700    2.87523000
 O                 -1.14748300    3.82365800    0.50290800
 Si                -2.37185500    3.50967000    1.54169300
 Si                 0.45250100    3.48039700    0.49921800              
 C                  0.30341400    4.34544400    4.44741400
 C                  0.01468800    5.64534700    3.70748300
 H                  1.36743900    4.25526400    4.71007100
 H                 -0.29106700    4.26130500    5.36869200
 C                  0.38931600    6.89109400    4.52265100
 H                  0.57242900    5.66787900    2.76644600
 H                 -1.04550000    5.69652000    3.44947800
 C                  1.84557900    7.00799200    4.78785600
 H                  0.03902000    7.77567600    3.96868700
 H                 -0.16945100    6.89613800    5.46425400
 H                  2.21708400    7.56021000    5.64066200
 H                  2.56175100    6.68587700    4.04075100
 F(Iso=100000000)   -3.09088800    4.91473700    1.90854600              
 F(Iso=100000000)   -3.49474500    2.62399700    0.78873800              
 F(Iso=100000000)    0.78281500    2.53807700   -0.77103700              
 F(Iso=100000000)    1.26733900    4.85952900    0.25203400

Cr 0
def2TZVP
****
H C O Si 0
TZVP
****
F 0
6-31G
****


