%nprocshared=12
%chk=\home\craigv\homolysis\Monoi\III\minus\IIIminus1freq.chk
#p freq temp=373.15 wb97xd/gen nosymm scf=maxcycles=1000 punch=derivatives

Title Card Required

0 2
 H                 -2.83534800    3.96439700    2.81557900
 H                  3.64694000    3.78889800    6.61359800
 H                  2.10123900    3.11336900    7.14014900
 H                  2.29891800    4.86304200    7.00267400
 H                  3.78508400    5.32711200    3.91236400
 H                  2.29736400    6.24451800    4.12535600
 H                  2.50660000    5.19352500    2.71388300
 H                  3.72188200    2.12951200    4.10721200
 H                  2.44162200    2.23793800    2.89420900
 H                  2.16386500    1.34868300    4.40307400
 H                 -3.24084800    5.60486400    5.97485800
 H                 -2.38644100    4.29771300    6.80456200
 H                 -3.02995600    4.03089100    5.19232200
 H                 -0.57413900    7.11855800    3.34384400
 H                 -2.18192900    6.36746900    3.11951200
 H                 -0.65355500    7.39341400    6.48002200
 H                  0.92079700    6.86528500    5.88369200
 H                  0.16766100    6.02322900    7.24401300
 C                  0.12462400    3.84577400    4.56075600
 H                 -0.35404900    2.89756500    4.82274800
 Si                 1.98681600    3.81833100    4.75053500
 Si                -0.90870700    5.35342800    5.09828000
 C                  2.56242800    3.90680900    6.54741300
 C                  2.70022700    5.28699400    3.78750500
 C                  2.64287800    2.22935600    3.96854100
 C                 -2.54810600    4.77281700    5.83456900
 C                 -1.13547000    6.18009500    3.38503700
 C                 -0.02973200    6.51736500    6.29087900
 Cr                -0.27204500    4.52124300    2.76699900
 O                  0.57257800    4.13011300    1.16156400
 O                 -2.06658800    3.59784200    2.37134400
 O                 -1.09347500    2.23120900    0.33512300
 Si                -2.33337500    2.26078800    1.36679800
 Si                 0.37302900    3.01002300    0.02536600
 O(Iso=10000000)                  1.52866100    1.82419300   -0.01749200
 O(Iso=10000000)                  0.32960000    3.67729900   -1.48162900
 O(Iso=10000000)                 -3.79819000    2.42208800    0.62379800
 O(Iso=10000000)                 -2.43817500    0.96277600    2.36828400
 H(Iso=10000000)                  1.47201800    1.11300600    0.62640700
 H(Iso=10000000)                  0.72100600    3.16320900   -2.19328300
 H(Iso=10000000)                 -3.81380100    2.94951200   -0.17949900
 H(Iso=10000000)                 -3.05842000    0.28781800    2.07921500

Cr 0
def2TZVP
****
H C O Si 0
TZVP
****







