%nprocshared=12
%chk=/home/craigv/homolysis/Monoi/III/IIIplus1Freq.chk
#p freq temp=373.15 wb97xd/gen nosymm scf(maxcycles=1000) punch=derivatives

Title Card Required

0 2
 H                 -2.83488200    3.96437600    2.81607500
 H                  3.65362200    3.76838100    6.60422300
 H                  2.10886400    3.09064000    7.13084900
 H                  2.30649200    4.84094900    7.00098100
 H                  3.78748600    5.31737200    3.90974600
 H                  2.30164700    6.23596700    4.13079800
 H                  2.50614300    5.19164800    2.71359800
 H                  3.72116200    2.11931100    4.08942500
 H                  2.43909500    2.23677800    2.87916200
 H                  2.16250800    1.33900500    4.38342700
 H                 -3.23487300    5.59542700    5.98280100
 H                 -2.38108200    4.28482900    6.80762400
 H                 -3.02656000    4.02365900    5.19515000
 H                 -0.57028700    7.11440200    3.35328900
 H                 -2.17894300    6.36523600    3.12877500
 H                 -0.64515400    7.37855300    6.49231700
 H                  0.92762200    6.85230100    5.89022700
 H                  0.17727100    6.00493500    7.24878100
 C                  0.12687700    3.83710300    4.55934400
 H                 -0.35238000    2.88855700    4.81899900
 Si                 1.98943300    3.80705200    4.74487100
 Si                -0.90410600    5.34421900    5.10284100
 C                  2.56899200    3.88674400    6.54087200
 C                  2.70226900    5.27955300    3.78723700
 C                  2.64207800    2.22145700    3.95313300
 C                 -2.54322900    4.76301900    5.83923300
 C                 -1.13227500    6.17624200    3.39237000
 C                 -0.02210300    6.50305200    6.29813600
 Cr                -0.27082000    4.51848900    2.76826300
 O                  0.57256000    4.13004900    1.16152600
 O                 -2.06646000    3.59792700    2.37118100
 O                 -1.09355100    2.23119500    0.33500800
 Si                -2.33339800    2.26084100    1.36675100
 Si                 0.37296600    3.00996000    0.02535400
 O(Iso=10000000)                  1.52869400    1.82421400   -0.01743700
 O(Iso=10000000)                  0.32946300    3.67718600   -1.48160400
 O(Iso=10000000)                 -3.79824600    2.42210700    0.62383300
 O(Iso=10000000)                 -2.43805700    0.96281100    2.36817400
 H(Iso=10000000)                  1.47199000    1.11298600    0.62636000
 H(Iso=10000000)                  0.72111100    3.16327800   -2.19327700
 H(Iso=10000000)                 -3.81377000    2.94949200   -0.17950800
 H(Iso=10000000)                 -3.05848600    0.28782800    2.07926100

Cr 0
def2TZVP
****
H C O Si 0
TZVP
****





