%nprocshared=24
#p wb97xd/gen nosymm punch(derivatives) freq temp=373.15 int=grid=ultrafine

TiCl4 on silica

0 1
Ti			2.461118 -0.852939 0.206155
Cl			4.303896 -0.075130 1.121202
Cl			2.978039 -2.191951 -1.432767
Cl			1.270682 -1.823881 1.754128
Ti			-2.312491 -1.010489 -0.101147
Cl			-0.860574 -1.835022 -1.528142
Cl			-4.225219 -0.739403 -1.108739
Cl			-2.574640 -2.335482 1.616039
Si			-1.569630 2.203606 0.602386
O			0.067104 2.448676 0.674399
Si			1.257138 2.196647 -0.415983
O			1.634798 0.568472 -0.377767
O			-1.746067 0.545468 0.439655
O(Iso=10000000)			0.571746 2.623215 -1.846287
H(Iso=10000000)			1.121545 2.651206 -2.626643
O(Iso=10000000)			2.667272 3.003925 -0.191489
O(Iso=10000000)			-2.265191 2.963191 -0.658934
O(Iso=10000000)			-2.342562 2.698658 1.946338
H(Iso=10000000)			3.302969 2.575579 0.381072
H(Iso=10000000)			-1.684793 3.117403 -1.410487
H(Iso=10000000)			-2.066469 2.315089 2.777277

Cl Si O H 0
TZVP
****
Ti     0 
S   8   1.00
 211575.6902500              0.23318151011E-03      
  31714.9450580              0.18079690851E-02      
   7217.5476543              0.93984311352E-02      
   2042.9394247              0.38156853618E-01      
    665.12896208             0.12374757197    
    238.74942264             0.29208551143    
     92.508691001            0.41226800855    
     36.403919209            0.21090534061    
S   4   1.00
    232.72624607            -0.24920140738E-01      
     71.791209711           -0.11746490087    
     11.158534615            0.56503342318    
      4.6548135416           0.56211101812    
S   2   1.00
      6.8034629174          -0.23011425503    
      1.1201076403           0.72103186735    
S   1   1.00
      0.48080118839          1.0000000        
S   1   1.00
      0.85157274977E-01            1.0000000        
S   1   1.00
      0.32657477046E-01            1.0000000        
P   6   1.00
   1063.1474732              0.24690839320E-02      
    251.56507061             0.19773345523E-01      
     80.408554854            0.90987976672E-01      
     29.768193269            0.25559900413    
     11.736830556            0.40489386764    
      4.7142375230           0.23693402558    
P   3   1.00
     17.796803704           -0.27878639615E-01      
      2.4272698680           0.55672914668    
      0.96823445537          1.0055447350     
P   1   1.00
      0.37056694165          1.0000000        
P   1   1.00
      0.1015610              1.0000000        
D   4   1.00
     37.713384723            0.11513835092E-01      
     10.692931184            0.67246343996E-01      
      3.6728446990           0.21484207775    
      1.3588590303           0.38890892779    
D   1   1.00
      0.49213295253          1.0000000        
D   1   1.00
      0.16330520653          1.0000000        
D   1   1.00
      0.0540000              1.0000000        
F   1   1.00
      0.5620000              1.0000000        
****

































