%nprocshared=12
%chk=stuff.chk
#p freq wb97xd/gen nosymm punch=derivatives

TiCl4 on silica

0 1
 Ti                 2.43912800   -0.84285500    0.09300900
 Cl                 4.29592500   -0.07949000    0.99213900
 Cl                 2.93201700   -2.15437100   -1.57545200
 Cl                 1.27764800   -1.83859400    1.64745800
 Ti                -2.33183300   -0.99915900   -0.11588800
 Cl                -0.90878700   -1.80981000   -1.57991500
 Cl                -4.25877600   -0.70402100   -1.08882100
 Cl                -2.57307600   -2.34818300    1.58551600
 Si                -1.57062700    2.20395700    0.60238300
 O                  0.06585400    2.45107200    0.67396800
 Si                 1.24841300    2.22292100   -0.42869000
 O                  1.60348500    0.58849500   -0.45479800
 O                 -1.74792000    0.54609300    0.43755700
 O(Iso=100000000)                  0.57819400    2.72040500   -1.84330700
 H(Iso=100000000)                  1.12154500    2.65120600   -2.62664300
 O(Iso=100000000)                  2.66727200    3.00392500   -0.19148900
 O(Iso=100000000)                 -2.26519100    2.96319100   -0.65893400
 O(Iso=100000000)                 -2.34256200    2.69865800    1.94633800
 H(Iso=100000000)                  3.30296900    2.57557900    0.38107200
 H(Iso=100000000)                 -1.68479300    3.11740300   -1.41048700
 H(Iso=100000000)                 -2.06646900    2.31508900    2.77727700

Cl Si O H 0
TZVP
****
Ti     0 
S   8   1.00
 211575.6902500              0.23318151011E-03      
  31714.9450580              0.18079690851E-02      
   7217.5476543              0.93984311352E-02      
   2042.9394247              0.38156853618E-01      
    665.12896208             0.12374757197    
    238.74942264             0.29208551143    
     92.508691001            0.41226800855    
     36.403919209            0.21090534061    
S   4   1.00
    232.72624607            -0.24920140738E-01      
     71.791209711           -0.11746490087    
     11.158534615            0.56503342318    
      4.6548135416           0.56211101812    
S   2   1.00
      6.8034629174          -0.23011425503    
      1.1201076403           0.72103186735    
S   1   1.00
      0.48080118839          1.0000000        
S   1   1.00
      0.85157274977E-01            1.0000000        
S   1   1.00
      0.32657477046E-01            1.0000000        
P   6   1.00
   1063.1474732              0.24690839320E-02      
    251.56507061             0.19773345523E-01      
     80.408554854            0.90987976672E-01      
     29.768193269            0.25559900413    
     11.736830556            0.40489386764    
      4.7142375230           0.23693402558    
P   3   1.00
     17.796803704           -0.27878639615E-01      
      2.4272698680           0.55672914668    
      0.96823445537          1.0055447350     
P   1   1.00
      0.37056694165          1.0000000        
P   1   1.00
      0.1015610              1.0000000        
D   4   1.00
     37.713384723            0.11513835092E-01      
     10.692931184            0.67246343996E-01      
      3.6728446990           0.21484207775    
      1.3588590303           0.38890892779    
D   1   1.00
      0.49213295253          1.0000000        
D   1   1.00
      0.16330520653          1.0000000        
D   1   1.00
      0.0540000              1.0000000        
F   1   1.00
      0.5620000              1.0000000        
****

































