%nprocshared=32
#p opt=modredundant uwb97xd/gen nosymm scf(qc,maxcycles=1000)

Title Card Required

0 3
 Cr                 2.28129600    4.08924800    5.82953000
 O                  3.81502400    4.95571600    5.48423100
 O                  2.46198000    2.39301700    5.25775700
 O                  4.90772000    2.84001400    4.23296500
 Si                 3.70858200    1.75608100    4.44060600
 Si                 5.10999400    4.39334100    4.68306000
 F                  3.24978600    1.17966000    2.99867500
 F                  4.33625100    0.49986500    5.23968400
 F                  6.41226600    4.47604800    5.63807800
 F                  5.45490200    5.27079700    3.37496500
 Cr                -0.87796900    4.93077800    1.00442600
 O                 -1.72929800    3.54961600    1.79036800
 O                  0.78143500    4.37408400    0.57939400
 O                  0.61151900    2.32119400    2.28196000
 Si                 1.60657100    3.18767400    1.32059300
 Si                -0.99467700    2.32665000    2.56091400
 F                  2.78628400    3.82471900    2.23540900
 F                  2.33157300    2.21924200    0.26557400
 F                 -1.60803800    0.90781800    2.10953200
 F                 -1.22284900    2.42689400    4.16263100
 C                  1.98294860    4.27806685    7.76469897
 C                  0.86311200    5.32276268    7.82845946
 C                 -0.15563247    5.05576604    6.70811148
 C                  0.55950555    5.09125478    5.35402884
 H                  1.64693503    3.29429745    8.10962479
 H                  2.90563126    4.55503669    8.27421342
 H                  0.38085535    5.30860032    8.80977336
 H                  1.28169001    6.32533316    7.69869437
 H                 -0.61592854    4.07423729    6.86184860
 H                 -0.96840343    5.78721762    6.73356042
 H                 -0.00545142    4.68218826    4.51693804
 H                  0.92316480    6.09522108    5.10874480
 C                 -0.07867992    7.17817193    0.32198065
 C                 -0.37170183    6.50422000   -0.79834829
 C                 -3.12318617    5.82486969    1.56359157
 C                 -3.15698478    5.29833486    0.33206257
 H                 -3.10125346    5.92327737   -0.55245418
 H                 -3.33400440    4.23818162    0.18832643
 H                 -3.03883292    6.89479210    1.71935294
 H                 -3.26782917    5.19889820    2.43679173
 H                 -0.77691907    7.88615036    0.75455201
 H                  0.90415804    7.10057215    0.77350139
 H                  0.36755211    5.86582485   -1.26843225
 H                 -1.31760089    6.64182825   -1.31056275

D 8 9 10 7 F
A 7 10 9 F
A 8 9 10 F
B 7 10 F
B 7 9 F
B 7 8 F
B 17 20 F
B 17 19 F
B 17 18 F
D 18 19 20 17 F
A 17 20 19 F
A 18 19 20 F

Cr 0
def2TZVP
****
H C O Si 0
TZVP
****
F 0
6-31G
****



