%nprocshared=8
#p wb97xd/TZVP nosymm geom=connectivity opt freq temp=373.15

Title Card Required

0 1
 C                 -1.73366832    2.09170866    0.00000000
 C                 -0.22651832    2.09170866    0.00000000
 H                 -2.12348132    3.13806866    0.00000000
 H                 -2.12720032    1.56851766   -0.90491000
 H                 -2.12729332    1.56840366    0.90478800
 C                  0.33322868    0.69238066   -0.00007200
 H                  0.14754868    2.64442366   -0.90236800
 H                  0.14762068    2.64436866    0.90236400
 H                  1.44950068    0.71897666   -0.00013000
 H                 -0.00644932    0.13263966    0.90480900
 H                 -0.00652632    0.13269966   -0.90496300

 1 2 1.0 3 1.0 4 1.0 5 1.0
 2 6 1.0 7 1.0 8 1.0
 3
 4
 5
 6 9 1.0 10 1.0 11 1.0
 7
 8
 9
 10
 11

