%nprocshared=8
#p wb97xd/gen nosymm geom=connectivity freq temp=373.15

Title Card Required

0 1
 Si          -1.742775    0.400722   -1.178414
 O           -1.196862    1.254934    0.079489
 F(Iso=100000000000)          -1.195433   -1.119540   -1.151769
 F(Iso=100000000000)          -1.244818    1.098738   -2.532962
 F(Iso=100000000000)          -3.354018    0.351855   -1.243545
 H           -1.292218    0.915350    0.968303

 1 2 2.0 3 1.0 4 1.0 5 1.0
 2 6 1.0
 3
 4
 5
 6

H Si O 0
TZVP
****
F 0
6-31G
****

