%nprocshared=12
%chk=/home/craigv/homolysis/Monoi/III/IIIminus1opt.chk
#p opt=modredundant wb97xd/gen nosymm scf(maxcycles=1000)

Title Card Required

0 2
 H                 -2.44192600    3.44901300    3.27199400
 H                  2.90704600    1.47835400    6.30540700
 H                  1.32057200    1.93849400    6.94915000
 H                  2.60732200    3.14721600    6.79907100
 H                  3.84996400    2.58439900    3.60056300
 H                  3.44069200    4.25778900    3.94412600
 H                  2.76420400    3.46044700    2.51788100
 H                  1.72506800    0.34609800    3.70374300
 H                  0.57901500    1.30961300    2.74424700
 H                  0.09241600    0.67836400    4.30621600
 H                 -0.93395700    7.41187400    6.35788600
 H                 -1.16992300    5.80671700    7.06079600
 H                 -1.95810100    6.23066500    5.53526100
 H                  1.60581500    6.68253400    3.13723100
 H                 -0.08231600    7.34283900    3.21586900
 H                  2.17909900    7.06817300    6.35540600
 H                  2.92957000    5.60922900    5.70549900
 H                  1.93472400    5.50913900    7.18328500
 C                  0.17106700    3.93692100    4.59120000
 H                 -0.72903800    3.47566500    5.01790800
 Si                 1.57415400    2.69558600    4.57090300
 Si                 0.46646800    5.72093700    5.16907800
 C                  2.15419500    2.27059300    6.32067800
 C                  3.03795900    3.31749200    3.56004100
 C                  0.94208500    1.10779300    3.76596000
 C                 -1.04433000    6.35447200    6.12116800
 C                  0.56620200    6.48292100    3.43051700
 C                  2.02461100    6.00345600    6.19516700
 Cr                -0.08875000    4.71099000    2.76221300
 O                  0.53540200    4.10976300    1.15105000
 O                 -2.01249100    3.55359500    2.42146400
 O                 -1.11793100    2.23166500    0.30132200
 Si                -2.33264100    2.26735700    1.36959200
 Si                 0.35878000    2.99559900    0.01629800
 O                  1.52866100    1.82419300   -0.01749200
 O                  0.32960000    3.67729900   -1.48162900
 O                 -3.79819000    2.42208800    0.62379800
 O                 -2.43817500    0.96277600    2.36828400
 H                  1.47201800    1.11300600    0.62640700
 H                  0.72100600    3.16320900   -2.19328300
 H                 -3.81380100    2.94951200   -0.17949900
 H                 -3.05842000    0.28781800    2.07921500

X 35 F
X 36 F
X 37 F
X 38 F
X 39 F
X 40 F
X 41 F
X 42 F

Cr 0
def2TZVP
****
H C O Si 0
TZVP
****





