%nprocshared=12
#p opt=(modredundant,tight) int=grid=ultrafine wb97xd/gen nosymm geom=connectivity

TS[F3SiO - H - C2H3]

0 2
 Si                -1.82543023    0.27487671   -1.26131950
 O                 -1.27951723    1.12908871   -0.00341650
 F                 -1.27808823   -1.24538529   -1.23467450
 F                 -1.32747323    0.97289271   -2.61586750
 F                 -3.43667323    0.22600971   -1.32645050
 H                 -0.65435612    2.08091689    0.62363749
 C                 -0.05776057    3.08874099    1.18787534
 C                  0.26321365    3.86987175    2.21006100
 H                  0.02347029    3.41565384    0.14254699
 H                  0.63184764    4.89621138    2.07996367
 H                  0.18198655    3.54295753    3.25538921

X 5 F
X 3 F
X 4 F
B 2 6 F
B 6 7 F

H Si O C 0
TZVP
****
F 0
6-31G
****

